<?xml version="1.0" encoding="UTF-8"?>

<!-- generated on 2026-02-06T22:38:44.991732+05:30 by Eclipse SUMO polyconvert v1_26_0+0037-1ae33e2cd60
<polyconvertConfiguration xmlns:xsi="http://www.w3.org/2001/XMLSchema-instance" xsi:noNamespaceSchemaLocation="http://sumo.dlr.de/xsd/polyconvertConfiguration.xsd">

    <input>
        <net-file value="network/bangalore.net.xml"/>
        <osm-files value="network/bangalore.osm"/>
        <type-file value="/usr/share/sumo/data/typemap/osmPolyconvert.typ.xml"/>
    </input>

    <output>
        <output-file value="network/bangalore.poly.xml"/>
    </output>

</polyconvertConfiguration>
-->

<additional xmlns:xsi="http://www.w3.org/2001/XMLSchema-instance" xsi:noNamespaceSchemaLocation="http://sumo.dlr.de/xsd/additional_file.xsd">
    <location netOffset="-780349.74,-1434714.29" convBoundary="-896.29,-3493.28,3814.07,3501.90" origBoundary="77.576039,12.933543,77.619323,12.996944" projParameter="+proj=utm +zone=43 +ellps=WGS84 +datum=WGS84 +units=m +no_defs"/>

    <poly id="1008078192" type="landuse" color="194,194,130" fill="1" layer="-3.00" shape="1779.124783,828.274832 1836.020385,825.445426 1836.610811,834.617470 1841.101657,865.858742 1838.295310,866.383625 1838.412498,868.731676 1833.562847,869.479262 1834.206683,874.478432 1831.939497,875.363056 1828.503311,875.903657 1791.492226,878.138767 1781.552287,878.745896 1779.124783,828.274832"/>
    <poly id="1027374086" type="building" color="255,230,230" fill="1" layer="-1.00" shape="2144.153512,1665.135144 2159.056724,1661.125032 2151.033192,1635.692518 2134.391902,1641.932114 2138.308580,1652.798688 2144.153512,1665.135144"/>
    <poly id="1035320472" type="building" color="255,230,230" fill="1" layer="-1.00" shape="2178.586414,1089.398521 2170.312702,1090.564949 2172.712812,1107.493509 2180.986407,1106.338153 2178.586414,1089.398521"/>
    <poly id="1035562472" type="building" color="255,230,230" fill="1" layer="-1.00" shape="2425.584853,849.154283 2474.662170,830.570982 2466.921287,810.399582 2438.856824,821.027895 2441.003249,826.651314 2420.012084,834.606541 2425.584853,849.154283"/>
    <poly id="1035562473" type="landuse" color="194,194,130" fill="1" layer="-3.00" shape="1898.538447,1160.089569 1898.686708,1161.519122 1899.429368,1168.534062 1899.775762,1171.825411 1917.065978,1167.972319 1974.409889,1155.195899 1983.366760,1153.040083 1989.250661,1138.177653 1990.377101,1135.244506 2004.107286,1097.270317 2005.795372,1093.556925 2012.387921,1076.277378 1963.352976,1073.773264 1962.448897,1112.365433 1894.308199,1111.836199 1894.966859,1119.636257 1898.538447,1160.089569"/>
    <poly id="1035562473#1" type="shop" color="237,199,255" fill="1" layer="-1.00" shape="1898.538447,1160.089569 1898.686708,1161.519122 1899.429368,1168.534062 1899.775762,1171.825411 1917.065978,1167.972319 1974.409889,1155.195899 1983.366760,1153.040083 1989.250661,1138.177653 1990.377101,1135.244506 2004.107286,1097.270317 2005.795372,1093.556925 2012.387921,1076.277378 1963.352976,1073.773264 1962.448897,1112.365433 1894.308199,1111.836199 1894.966859,1119.636257 1898.538447,1160.089569"/>
    <poly id="1035562474" type="landuse" color="194,194,130" fill="1" layer="-3.00" shape="2012.387921,1076.277378 1963.352976,1073.773264 1929.822644,1070.054743 1929.628114,1030.598977 1944.479840,1029.532806 1944.172824,1019.190213 2032.032940,1021.481670 2012.387921,1076.277378"/>
    <poly id="1035562479" type="parking" color="184,184,179" fill="1" layer="-1.00" shape="2330.206648,1041.762834 2332.651474,1048.994461 2352.292872,1042.431317 2355.745459,1041.348515 2348.867253,1021.750542 2332.592152,1027.174654 2336.775416,1039.582718 2330.206648,1041.762834"/>
    <poly id="1035562481" type="building" color="255,230,230" fill="1" layer="-1.00" shape="2270.302216,974.619443 2249.451780,979.443364 2241.898948,947.229691 2262.749405,942.405761 2270.302216,974.619443"/>
    <poly id="1035562483" type="building" color="255,230,230" fill="1" layer="-1.00" shape="2263.388500,1079.648459 2231.771869,1087.329185 2233.919209,1096.052225 2265.535831,1088.371503 2263.388500,1079.648459"/>
    <poly id="1035562484" type="residential" color="235,235,227" fill="1" layer="-3.00" shape="2207.474293,1053.383603 2205.373438,1053.926722 2180.120547,1060.366233 2177.791165,1060.962371 2170.551650,1033.146759 2203.753649,1025.437864 2208.939640,1045.970527 2210.609124,1052.585362 2222.665243,1098.826571 2221.511747,1099.091542 2220.608490,1099.303718 2207.474293,1053.383603"/>
    <poly id="1035562485" type="commercial" color="209,209,204" fill="1" layer="-3.00" shape="1331.293180,658.569523 1324.270448,627.490882 1291.377786,636.809175 1273.967940,641.735280 1281.605425,673.218675 1302.687068,667.001546 1331.293180,658.569523"/>
    <poly id="1039668733" type="tourism" color="207,245,201" fill="1" layer="-2.00" shape="1610.519986,2121.266407 1619.364381,2143.939558 1582.523269,2158.419828 1567.644798,2164.301273 1547.968274,2108.407126 1610.519986,2121.266407"/>
    <poly id="1041871108" type="commercial" color="209,209,204" fill="1" layer="-3.00" shape="935.574741,2042.745356 909.990424,2050.953615 903.364182,2053.487654 915.351134,2097.048329 921.438895,2099.423901 950.969202,2089.628522 935.574741,2042.745356"/>
    <poly id="1041871109" type="building" color="255,230,230" fill="1" layer="-1.00" shape="1163.629789,2013.738491 1122.607407,2026.272735 1111.140616,1989.226384 1152.163040,1976.692113 1163.629789,2013.738491"/>
    <poly id="1047676474" type="building" color="255,230,230" fill="1" layer="-1.00" shape="1797.570942,2039.263662 1826.268243,2030.301964 1819.358517,2008.478724 1790.661198,2017.440433 1797.570942,2039.263662"/>
    <poly id="1047676475" type="building" color="255,230,230" fill="1" layer="-1.00" shape="1800.567781,2059.419657 1821.089483,2052.677096 1817.171189,2040.902815 1796.649480,2047.645380 1800.567781,2059.419657"/>
    <poly id="1047676476" type="college" color="237,199,199" fill="1" layer="-2.00" shape="1884.019435,2064.655247 1846.277837,2077.985803 1835.575061,2048.075884 1873.305833,2034.745195 1884.019435,2064.655247"/>
    <poly id="1047676477" type="amenity" color="237,199,199" fill="1" layer="-1.00" shape="1822.668007,2004.383361 1828.563831,2028.753442 1826.956012,2037.371697 1795.633857,2047.170071 1785.396522,2016.323978 1790.081108,2014.711273 1822.668007,2004.383361"/>
    <poly id="1047676478" type="parking" color="184,184,179" fill="1" layer="-1.00" shape="1456.599892,2127.955173 1478.820581,2117.465887 1471.379780,2101.925161 1449.169938,2112.414566 1456.599892,2127.955173"/>
    <poly id="1047676496" type="building" color="255,230,230" fill="1" layer="-1.00" shape="1144.998589,646.378781 1119.514306,649.960862 1110.728879,588.289017 1114.881980,587.711334 1114.486760,584.939811 1132.847579,582.580451 1132.909477,586.101346 1136.324856,585.471883 1144.998589,646.378781"/>
    <poly id="1050589708" type="school" color="237,199,199" fill="1" layer="-2.00" shape="3009.711025,1364.745450 2723.585486,1459.509791 2756.503007,1560.175540 2923.475421,1504.929298 2948.347394,1579.121736 3068.272034,1539.435106 3009.711025,1364.745450"/>
    <poly id="1050816537" type="building" color="255,230,230" fill="1" layer="-1.00" shape="2134.700078,1980.503434 2134.084716,1988.666887 2134.294336,1996.838769 2135.307790,2004.963515 2137.137066,2012.930544 2139.316531,2019.561669 2142.051861,2025.977072 2145.321687,2032.143325 2149.115604,2038.016041 2152.488579,2035.150139 2154.849076,2038.938097 2156.577050,2040.881954 2158.524498,2042.595582 2161.615243,2039.726797 2165.970118,2043.822960 2170.632551,2047.568024 2177.124160,2051.852078 2184.024529,2055.442893 2191.454054,2040.186715 2187.129701,2038.415582 2183.027311,2036.170704 2179.222645,2033.474995 2175.748039,2030.350925 2172.667945,2026.865574 2170.014702,2023.041411 2173.456091,2019.855177 2168.323404,2010.072097 2179.804747,2005.196805 2179.394132,2016.694456 2195.400068,2017.367257 2195.997128,2009.934242 2195.617350,2002.480174 2194.248406,1995.148838 2192.186433,1988.707099 2189.372294,1982.567637 2185.848732,1976.797310 2172.662109,1984.942998 2177.214734,1995.185095 2164.459859,1996.139625 2164.155024,1993.036879 2164.165211,1989.915212 2164.721885,1985.371084 2160.723848,1984.599603 2160.924794,1979.808298 2161.808928,1975.090395 2163.332038,1970.522933 2165.460202,1966.238406 2168.171145,1962.291938 2171.399058,1958.749277 2158.470068,1948.056277 2155.260699,1951.909092 2152.417687,1956.031334 2149.973711,1960.412265 2147.438029,1966.331005 2145.627034,1972.511762 2141.197621,1971.459123 2139.767347,1976.503549 2139.285079,1981.203418 2134.700078,1980.503434"/>
    <poly id="1054233118" type="landuse" color="194,194,130" fill="1" layer="-3.00" shape="1450.596655,2074.691294 1431.959095,2070.206138 1424.464696,2066.310583 1417.763357,2061.293967 1415.554655,2058.581433 1410.344249,2052.140909 1404.860839,2043.727136 1401.354578,2034.115808 1401.636814,2020.270052 1409.726772,2018.990885 1427.887972,2012.700002 1450.596655,2074.691294"/>
    <poly id="1060008787" type="parking" color="184,184,179" fill="1" layer="-1.00" shape="2243.096508,875.684740 2219.198038,891.935127 2213.213474,879.431211 2201.753036,875.838163 2172.454172,878.727174 2170.452380,861.060991 2189.851078,858.070879 2225.921698,875.653245 2234.511947,861.571238 2239.753668,861.768683 2243.096508,875.684740"/>
    <poly id="1064418710" type="building" color="255,230,230" fill="1" layer="-1.00" shape="2457.629722,927.072303 2465.073644,924.248019 2500.865464,891.558486 2503.385639,890.355465 2498.422737,877.751204 2446.487306,898.740665 2457.629722,927.072303"/>
    <poly id="1064418710#1" type="shop" color="237,199,255" fill="1" layer="-1.00" shape="2457.629722,927.072303 2465.073644,924.248019 2500.865464,891.558486 2503.385639,890.355465 2498.422737,877.751204 2446.487306,898.740665 2457.629722,927.072303"/>
    <poly id="1064418715" type="building" color="255,230,230" fill="1" layer="-1.00" shape="1309.470781,2151.130843 1261.195282,2168.063251 1268.698959,2189.161702 1297.962740,2178.899028 1295.197592,2171.132896 1314.209175,2164.474246 1309.470781,2151.130843"/>
    <poly id="1064898147" type="amenity" color="237,199,199" fill="1" layer="-1.00" shape="793.562379,2126.473384 794.826898,2124.892164 796.659521,2124.025202 798.700010,2124.068094 800.503541,2124.994177 801.713704,2126.622705 802.050638,2128.718362 801.378745,2130.737339 799.843867,2132.216179 797.786107,2132.804101 795.987015,2132.509054 794.455419,2131.530387 793.450372,2130.014645 793.131995,2128.229137 793.562379,2126.473384"/>
    <poly id="1066006344" type="amenity" color="237,199,199" fill="1" layer="-1.00" shape="1383.305448,708.858810 1420.151413,706.853906 1415.953447,671.320614 1379.519982,671.193215 1383.305448,708.858810"/>
    <poly id="1066006344#1" type="commercial" color="209,209,204" fill="1" layer="-3.00" shape="1383.305448,708.858810 1420.151413,706.853906 1415.953447,671.320614 1379.519982,671.193215 1383.305448,708.858810"/>
    <poly id="1066870634" type="amenity" color="237,199,199" fill="1" layer="-1.00" shape="1743.775916,735.612211 1760.468959,731.786094 1784.367095,727.258542 1785.954537,735.544069 1797.078345,793.454329 1782.857826,794.360989 1777.078321,794.733794 1747.692190,796.603925 1743.775916,735.612211"/>
    <poly id="1066870634#1" type="commercial" color="209,209,204" fill="1" layer="-3.00" shape="1743.775916,735.612211 1760.468959,731.786094 1784.367095,727.258542 1785.954537,735.544069 1797.078345,793.454329 1782.857826,794.360989 1777.078321,794.733794 1747.692190,796.603925 1743.775916,735.612211"/>
    <poly id="1066870635" type="leisure" color="207,245,201" fill="1" layer="-2.00" shape="1743.775916,735.612211 1760.468959,731.786094 1784.367095,727.258542 1785.954537,735.544069 1748.711887,741.308264 1750.667765,777.350203 1782.565049,776.225228 1782.857826,794.360989 1777.078321,794.733794 1747.692190,796.603925 1743.775916,735.612211"/>
    <poly id="1066895468" type="commercial" color="209,209,204" fill="1" layer="-3.00" shape="1367.617241,1063.969804 1353.837879,1053.556496 1354.062508,1048.555126 1373.655619,1008.315787 1390.330560,1019.035339 1386.830611,1025.840982 1367.617241,1063.969804"/>
    <poly id="1066902615" type="building" color="255,230,230" fill="1" layer="-1.00" shape="1643.254470,1899.545784 1623.805458,1906.487621 1615.981565,1884.865481 1635.441442,1877.923747 1643.254470,1899.545784"/>
    <poly id="1066902616" type="building" color="255,230,230" fill="1" layer="-1.00" shape="1680.612617,1925.941499 1659.422066,1933.330487 1639.562834,1877.246226 1660.753642,1869.835078 1680.612617,1925.941499"/>
    <poly id="1066902620" type="building" color="255,230,230" fill="1" layer="-1.00" shape="2121.178457,2129.811746 2134.599713,2129.506085 2134.433859,2122.364169 2159.615007,2121.791237 2159.448594,2114.704664 2120.839733,2115.151460 2121.178457,2129.811746"/>
    <poly id="1066902621" type="building" color="255,230,230" fill="1" layer="-1.00" shape="2222.801382,2113.979469 2222.973069,2124.796729 2162.799114,2125.720456 2162.629778,2114.670753 2222.801382,2113.979469"/>
    <poly id="1066902628" type="commercial" color="209,209,204" fill="1" layer="-3.00" shape="1993.766985,1924.023284 2024.122834,1914.259505 2037.825478,1962.941845 2007.795773,1972.664651 1993.766985,1924.023284"/>
    <poly id="1066902629" type="residential" color="235,235,227" fill="1" layer="-3.00" shape="1964.706069,1986.648950 1992.644678,1977.580024 2007.795773,1972.664651 1993.766985,1924.023284 1953.811715,1936.168777 1949.760649,1937.400474 1964.706069,1986.648950"/>
    <poly id="1066902630" type="commercial" color="209,209,204" fill="1" layer="-3.00" shape="2016.378893,1741.320834 1974.096312,1755.966567 1968.290995,1757.822421 1938.578067,1767.338243 1932.772078,1769.260518 1861.069845,1794.487977 1906.111604,1939.179917 2066.477817,1889.319434 2022.226868,1744.856562 2021.458864,1743.520308 2020.373350,1742.446493 2018.483088,1741.508373 2016.378893,1741.320834"/>
    <poly id="1066902631" type="commercial" color="209,209,204" fill="1" layer="-3.00" shape="1924.559489,1644.283928 1940.833848,1694.187970 1998.006085,1675.797522 1982.605528,1625.382056 1924.559489,1644.283928"/>
    <poly id="1066902632" type="commercial" color="209,209,204" fill="1" layer="-3.00" shape="1914.339649,1763.802991 1983.648156,1741.241237 1979.018830,1726.802848 1989.539900,1723.478540 1994.158367,1737.916821 2015.889919,1730.732828 1998.006085,1675.797522 1940.833848,1694.187970 1924.559489,1644.283928 1905.672739,1650.356818 1928.147003,1719.309335 1903.358417,1727.126396 1914.339649,1763.802991"/>
    <poly id="1066902633" type="commercial" color="209,209,204" fill="1" layer="-3.00" shape="2065.141547,1711.907402 2026.874027,1725.653117 1995.526170,1618.838704 2042.162222,1604.204204 2060.956422,1662.480941 2049.911218,1666.098768 2065.141547,1711.907402"/>
    <poly id="1066902634" type="commercial" color="209,209,204" fill="1" layer="-3.00" shape="2060.956422,1662.480941 2042.162222,1604.204204 2088.386067,1589.543424 2107.392433,1647.235660 2060.956422,1662.480941"/>
    <poly id="1066902636" type="building" color="255,230,230" fill="1" layer="-1.00" shape="2075.219358,1694.585989 2103.749791,1685.002859 2095.581377,1660.996933 2067.050926,1670.580075 2075.219358,1694.585989"/>
    <poly id="1066902637" type="commercial" color="209,209,204" fill="1" layer="-3.00" shape="2120.895364,1687.845888 2119.589240,1683.924799 2107.392433,1647.235660 2060.956422,1662.480941 2049.911218,1666.098768 2065.141547,1711.907402 2080.816331,1706.753844 2079.078370,1701.533146 2120.895364,1687.845888"/>
    <poly id="1066902641" type="building" color="255,230,230" fill="1" layer="-1.00" shape="2054.584900,1784.618710 2088.641721,1772.844796 2077.206953,1740.204039 2043.149990,1751.989043 2048.688169,1767.787285 2054.584900,1784.618710"/>
    <poly id="1066902642" type="commercial" color="209,209,204" fill="1" layer="-3.00" shape="2070.083365,1723.382218 2086.340024,1717.592542 2118.040493,1801.528852 2083.444773,1810.795378 2076.851185,1787.790776 2049.225003,1797.073183 2047.981182,1793.429487 2032.386122,1747.196467 2073.438520,1732.892493 2070.083365,1723.382218"/>
    <poly id="1066902643" type="landuse" color="194,194,130" fill="1" layer="-3.00" shape="2000.834251,1846.427653 1983.476804,1851.586196 1980.918245,1841.674475 1955.787461,1848.989822 1945.956068,1850.693869 1944.480880,1845.254463 1943.719080,1841.183961 1952.902901,1839.107987 1932.772078,1769.260518 1938.578067,1767.338243 1968.290995,1757.822421 1974.096312,1755.966567 2000.834251,1846.427653"/>
    <poly id="1066902644" type="commercial" color="209,209,204" fill="1" layer="-3.00" shape="2077.756663,1883.013982 2176.384213,1855.482865 2126.462131,1704.031897 2086.340024,1717.592542 2118.040493,1801.528852 2083.444773,1810.795378 2076.851185,1787.790776 2049.225003,1797.073183 2077.756663,1883.013982"/>
    <poly id="1066902645" type="residential" color="235,235,227" fill="1" layer="-3.00" shape="2323.584773,1697.134795 2323.206660,1695.891076 2321.878288,1692.025094 2364.146549,1677.756073 2383.766401,1671.137467 2395.309081,1704.875462 2355.253026,1718.325718 2345.632989,1689.788221 2323.584773,1697.134795"/>
    <poly id="1066902646" type="residential" color="235,235,227" fill="1" layer="-3.00" shape="2395.309081,1704.875462 2402.179637,1724.130246 2340.027015,1745.413633 2339.162468,1742.902947 2333.911526,1727.694267 2333.215795,1725.661323 2355.253026,1718.325718 2395.309081,1704.875462"/>
    <poly id="1066902647" type="building" color="255,230,230" fill="1" layer="-1.00" shape="2355.623118,1704.425425 2383.762119,1694.916055 2377.247270,1675.908459 2349.119222,1685.406881 2355.623118,1704.425425"/>
    <poly id="1066902648" type="building" color="255,230,230" fill="1" layer="-1.00" shape="2347.701285,1741.274372 2392.095757,1726.097252 2386.411999,1709.688558 2342.017507,1724.865692 2347.701285,1741.274372"/>
    <poly id="1066902649" type="residential" color="235,235,227" fill="1" layer="-3.00" shape="2383.766401,1671.137467 2388.623646,1669.637311 2416.216545,1660.454485 2422.142582,1658.478177 2426.125404,1670.297522 2449.110511,1662.639568 2466.643934,1714.604964 2405.989572,1734.807598 2402.179637,1724.130246 2395.309081,1704.875462 2383.766401,1671.137467"/>
    <poly id="1066902650" type="school" color="237,199,199" fill="1" layer="-2.00" shape="2417.207184,1554.014255 2412.077998,1539.637066 2408.679493,1530.126290 2448.851525,1515.979819 2457.379077,1539.878871 2417.207184,1554.014255"/>
    <poly id="1066902651" type="residential" color="235,235,227" fill="1" layer="-3.00" shape="2428.831314,1588.284459 2417.207184,1554.014255 2457.379077,1539.878871 2469.578950,1574.110708 2428.831314,1588.284459"/>
    <poly id="1066960397" type="building" color="255,230,230" fill="1" layer="-1.00" shape="2094.784473,614.045284 2115.983498,619.763487 2120.799361,602.122628 2099.600322,596.404424 2094.784473,614.045284"/>
    <poly id="1066960398" type="building" color="255,230,230" fill="1" layer="-1.00" shape="2034.571062,610.010153 2049.948332,613.853404 2048.081828,621.218108 2066.133859,625.730729 2079.629909,572.422053 2069.872876,569.986693 2070.925142,565.812936 2047.252807,559.892419 2034.571062,610.010153"/>
    <poly id="1066960399" type="college" color="237,199,199" fill="1" layer="-2.00" shape="2126.250763,600.927350 2118.975394,626.591064 2075.371728,617.334243 2064.876685,639.345183 2034.078776,633.783681 2023.798253,634.774720 2028.607894,621.993563 2048.881491,541.787301 2061.131213,551.034052 2115.656900,592.195615 2126.250763,600.927350"/>
    <poly id="1067945108" type="commercial" color="209,209,204" fill="1" layer="-3.00" shape="2511.940081,1691.953822 2468.304774,1705.068425 2485.740466,1762.335443 2531.208992,1748.298677 2511.940081,1691.953822"/>
    <poly id="107240640" type="commercial" color="209,209,204" fill="1" layer="-3.00" shape="1165.281396,872.347092 1101.145610,790.794953 1099.931134,779.978265 1100.919866,774.564015 1101.760527,773.033833 1107.541791,767.148039 1196.880700,727.629173 1232.596173,817.504808 1220.307765,849.394271 1201.305628,846.510893 1193.226684,850.945256 1165.281396,872.347092"/>
    <poly id="107240640#1" type="tourism" color="207,245,201" fill="1" layer="-2.00" shape="1165.281396,872.347092 1101.145610,790.794953 1099.931134,779.978265 1100.919866,774.564015 1101.760527,773.033833 1107.541791,767.148039 1196.880700,727.629173 1232.596173,817.504808 1220.307765,849.394271 1201.305628,846.510893 1193.226684,850.945256 1165.281396,872.347092"/>
    <poly id="107240643" type="building" color="255,230,230" fill="1" layer="-1.00" shape="1156.643377,816.488446 1156.065654,813.515803 1155.280282,809.611166 1154.525899,805.861825 1153.575398,801.114187 1153.172869,799.062138 1144.563901,755.281194 1172.465954,749.875059 1175.304687,764.306036 1198.420444,759.825394 1209.196108,814.720584 1212.966221,834.707131 1186.273913,839.660578 1184.368490,829.534261 1159.960325,834.068173 1156.643377,816.488446"/>
    <poly id="1083566586" type="landuse" color="194,194,130" fill="1" layer="-3.00" shape="1436.981547,2020.530654 1497.551887,1995.620537 1477.640590,1947.816317 1458.050133,1955.863818 1451.257487,1939.565884 1410.266777,1956.417394 1436.981547,2020.530654"/>
    <poly id="1083566610" type="landuse" color="194,194,130" fill="1" layer="-3.00" shape="2020.294385,2098.836462 1994.247468,2010.917387 1992.644678,1977.580024 1964.706069,1986.648950 1902.298743,2005.340131 1871.560413,2014.303065 1907.637916,2106.553134 1891.411418,2140.250870 1888.397747,2148.334477 2006.265168,2121.464363 2001.451874,2104.854332 2020.294385,2098.836462"/>
    <poly id="1089717986" type="residential" color="235,235,227" fill="1" layer="-3.00" shape="2161.088475,984.939457 2151.593231,1000.473485 2148.964825,1015.468775 2147.628537,1027.255859 2147.510775,1040.915163 2114.739229,1035.178341 2096.779196,1032.316015 2098.329082,1022.999745 2102.671766,999.597612 2107.422982,973.398915 2161.088475,984.939457"/>
    <poly id="1089717987" type="residential" color="235,235,227" fill="1" layer="-3.00" shape="2235.832085,886.448183 2258.472445,921.096392 2239.928320,933.958644 2216.225247,898.126167 2219.502230,896.167014 2235.832085,886.448183"/>
    <poly id="1089717988" type="residential" color="235,235,227" fill="1" layer="-3.00" shape="2235.832085,886.448183 2266.155645,867.208082 2288.872988,885.816514 2296.968226,892.563417 2276.240424,909.820318 2258.472445,921.096392 2235.832085,886.448183"/>
    <poly id="1089717989" type="residential" color="235,235,227" fill="1" layer="-3.00" shape="2201.565334,906.976452 2195.271565,910.930629 2195.345252,961.123238 2225.901194,942.505414 2201.565334,906.976452"/>
    <poly id="1089717991" type="residential" color="235,235,227" fill="1" layer="-3.00" shape="2410.859256,944.096147 2437.890730,934.674988 2456.006935,928.638744 2442.609091,895.789584 2388.339827,917.818016 2401.135728,940.520757 2406.548646,938.838066 2410.859256,944.096147"/>
    <poly id="1089717995" type="military" color="153,153,92" fill="1" layer="-3.00" shape="2409.012036,967.623419 2391.334166,939.269299 2359.299152,949.624613 2361.927729,959.061073 2370.133883,995.322077 2353.470794,1000.465463 2366.322594,1037.880952 2375.862812,1034.956301 2381.780713,1062.470679 2439.695607,1049.125323 2420.006514,977.499634 2416.112143,974.005953 2409.012036,967.623419"/>
    <poly id="1089717996" type="residential" color="235,235,227" fill="1" layer="-3.00" shape="2490.859976,960.168496 2469.135930,965.481487 2475.302330,990.983676 2497.046825,985.792674 2490.859976,960.168496"/>
    <poly id="1089717997" type="residential" color="235,235,227" fill="1" layer="-3.00" shape="2362.688089,1066.327229 2381.780713,1062.470679 2375.862812,1034.956301 2366.322594,1037.880952 2355.745459,1041.348515 2362.688089,1066.327229"/>
    <poly id="1089717999" type="building" color="255,230,230" fill="1" layer="-1.00" shape="2332.752952,1025.250096 2355.811222,1017.913745 2350.960020,1002.875234 2327.901853,1010.200522 2332.752952,1025.250096"/>
    <poly id="1089718000" type="commercial" color="209,209,204" fill="1" layer="-3.00" shape="2241.338301,1107.342031 2244.946024,1122.954530 2229.088489,1126.833137 2225.009342,1111.669701 2241.338301,1107.342031"/>
    <poly id="1089718001" type="building" color="255,230,230" fill="1" layer="-1.00" shape="2229.604895,1112.414059 2231.875486,1121.824705 2244.815418,1118.735483 2242.544719,1109.335904 2229.604895,1112.414059"/>
    <poly id="1091543230" type="residential" color="235,235,227" fill="1" layer="-3.00" shape="1347.629095,2101.117742 1302.907403,2120.853823 1294.021564,2096.896281 1287.484373,2099.209740 1244.332662,2116.161183 1249.199385,2131.830582 1239.457615,2133.281153 1237.769244,2133.839597 1247.043803,2160.136852 1249.537351,2159.398421 1259.599400,2156.345962 1269.875172,2157.889750 1288.991016,2151.652807 1288.167876,2148.268057 1318.844451,2138.927534 1346.800990,2124.854553 1366.238532,2116.882935 1347.629095,2101.117742"/>
    <poly id="1091543231" type="landuse" color="194,194,130" fill="1" layer="-3.00" shape="1214.606513,2070.559814 1198.311455,2076.969455 1182.724983,2031.921740 1180.655671,2032.575939 1147.209516,2043.106131 1149.094346,2050.973974 1176.874182,2132.068089 1197.687977,2195.744573 1245.738605,2179.562544 1256.174448,2176.048952 1249.537351,2159.398421 1247.065062,2160.181349 1237.769244,2133.839597 1239.457615,2133.281153 1214.606513,2070.559814"/>
    <poly id="1091543233" type="residential" color="235,235,227" fill="1" layer="-3.00" shape="1335.494145,2251.126051 1367.372194,2215.495408 1407.239407,2179.957286 1425.346734,2222.606578 1370.240033,2283.483668 1335.494145,2251.126051"/>
    <poly id="1092180883" type="landuse" color="194,194,130" fill="1" layer="-3.00" shape="1509.350075,665.197970 1503.418043,692.270236 1540.507747,736.684688 1577.551206,703.575160 1562.352819,682.176894 1549.045233,681.919559 1542.368054,657.442080 1509.350075,665.197970"/>
    <poly id="1092674470" type="water" color="181,209,209" fill="0" layer="-4.00" shape="2169.178384,1185.689845 2160.194829,1124.546474 2155.346857,1085.795885 2156.484847,1003.058487 2165.901610,985.641741 2194.441211,964.601089 2194.471063,904.269322 2330.455440,818.702537 2374.854723,762.809254 2479.919913,711.299826 2823.486949,602.396019 2964.266951,532.356817"/>
    <poly id="1093292150" type="parking" color="184,184,179" fill="1" layer="-1.00" shape="2409.771368,672.335686 2421.417212,680.104138 2440.026290,660.910512 2447.339778,659.169748 2436.355972,621.673703 2401.563954,630.871719 2409.771368,672.335686"/>
    <poly id="1093292151" type="amenity" color="237,199,199" fill="1" layer="-1.00" shape="2269.866205,611.260770 2290.295125,568.008153 2348.539002,595.879805 2351.595872,605.907345 2334.862949,644.437538 2313.130664,632.470164 2269.866205,611.260770"/>
    <poly id="1093292152" type="kindergarten" color="237,199,199" fill="1" layer="-2.00" shape="2365.454256,659.595068 2349.278118,652.123540 2334.862949,644.437538 2351.595872,605.907345 2359.308877,624.572861 2365.454256,659.595068"/>
    <poly id="1093292153" type="commercial" color="209,209,204" fill="1" layer="-3.00" shape="2313.130664,632.470164 2269.866205,611.260770 2255.827013,639.047282 2255.624387,641.879160 2256.451113,643.847012 2296.258139,663.415915 2313.130664,632.470164"/>
    <poly id="1093292154" type="building" color="255,230,230" fill="1" layer="-1.00" shape="2346.184038,619.169411 2337.145326,639.944246 2348.570695,644.854317 2347.503345,647.312050 2356.312972,651.088393 2360.915616,640.519172 2353.122112,637.173872 2355.923751,630.737545 2353.524105,629.705650 2356.236751,623.478746 2346.184038,619.169411"/>
    <poly id="1093292155" type="school" color="237,199,199" fill="1" layer="-2.00" shape="2038.479987,365.223960 1995.820852,474.061582 2016.843514,490.692990 2045.922097,513.683357 2096.032108,550.305346 2124.231001,496.726060 2123.947368,481.966728 2140.848256,452.482436 2067.483490,413.674766 2085.464380,385.806628 2038.479987,365.223960"/>
    <poly id="1093504016" type="residential" color="235,235,227" fill="1" layer="-3.00" shape="1558.728527,760.859109 1581.762158,792.156351 1633.486746,777.927024 1636.164971,777.190483 1634.079353,745.342812 1593.280200,748.546992 1558.728527,760.859109"/>
    <poly id="1093504018" type="commercial" color="209,209,204" fill="1" layer="-3.00" shape="1621.666970,1127.033716 1592.720994,1172.037370 1619.858285,1185.188447 1658.603785,1207.657117 1676.287794,1177.948228 1648.608603,1162.577556 1649.609470,1143.204079 1621.666970,1127.033716"/>
    <poly id="1093504018#1" type="tourism" color="207,245,201" fill="1" layer="-2.00" shape="1621.666970,1127.033716 1592.720994,1172.037370 1619.858285,1185.188447 1658.603785,1207.657117 1676.287794,1177.948228 1648.608603,1162.577556 1649.609470,1143.204079 1621.666970,1127.033716"/>
    <poly id="1093504019" type="commercial" color="209,209,204" fill="1" layer="-3.00" shape="1624.222035,991.385107 1629.610247,1019.812586 1601.164966,1026.330766 1598.027144,1028.490659 1603.925352,1052.683495 1604.190383,1056.505366 1620.190745,1053.513473 1627.184834,1052.201001 1638.932882,1090.412824 1641.404003,1098.275615 1621.666970,1127.033716 1649.609470,1143.204079 1648.608603,1162.577556 1676.287794,1177.948228 1688.315984,1158.853225 1691.341874,1146.374900 1675.525059,1079.184407 1664.315624,1045.649617 1648.147811,990.510888 1624.222035,991.385107"/>
    <poly id="1093504020" type="residential" color="235,235,227" fill="1" layer="-3.00" shape="1604.190383,1056.505366 1536.121879,1138.394321 1590.536674,1175.446826 1592.720994,1172.037370 1621.666970,1127.033716 1641.404003,1098.275615 1638.932882,1090.412824 1627.184834,1052.201001 1620.190745,1053.513473 1604.190383,1056.505366"/>