<?xml version="1.0" encoding="UTF-8"?>

<!-- generated on 2026-02-01T20:54:09.928910+05:30 by Eclipse SUMO netconvert v1_26_0+0037-1ae33e2cd60
<netconvertConfiguration xmlns:xsi="http://www.w3.org/2001/XMLSchema-instance" xsi:noNamespaceSchemaLocation="http://sumo.dlr.de/xsd/netconvertConfiguration.xsd">

    <input>
        <node-files value="/home/hari/DRIVE/simulation/network/grid.nod.xml"/>
        <edge-files value="/home/hari/DRIVE/simulation/network/grid.edg.xml"/>
    </input>

    <output>
        <output-file value="/home/hari/DRIVE/simulation/network/grid.net.xml"/>
    </output>

    <tls_building>
        <tls.guess value="true"/>
    </tls_building>

</netconvertConfiguration>
-->

<net version="1.20" junctionCornerDetail="5" limitTurnSpeed="5.50" xmlns:xsi="http://www.w3.org/2001/XMLSchema-instance" xsi:noNamespaceSchemaLocation="http://sumo.dlr.de/xsd/net_file.xsd">

    <location netOffset="100.00,100.00" convBoundary="0.00,0.00,600.00,600.00" origBoundary="-100.00,-100.00,500.00,500.00" projParameter="!"/>

    <edge id=":E1_0" function="internal">
        <lane id=":E1_0_0" index="0" speed="3.65" length="4.67" shape="600.00,98.40 601.20,99.20 601.60,100.00 601.20,100.80 600.00,101.60"/>
    </edge>
    <edge id=":J1_0" function="internal">
        <lane id=":J1_0_0" index="0" speed="6.51" length="9.03" shape="95.20,110.40 94.85,107.95 93.80,106.20 92.05,105.15 89.60,104.80"/>
    </edge>
    <edge id=":J1_1" function="internal">
        <lane id=":J1_1_0" index="0" speed="13.89" length="20.80" shape="95.20,110.40 95.20,89.60"/>
        <lane id=":J1_1_1" index="1" speed="13.89" length="20.80" shape="98.40,110.40 98.40,89.60"/>
    </edge>
    <edge id=":J1_3" function="internal">
        <lane id=":J1_3_0" index="0" speed="9.26" length="5.01" shape="98.40,110.40 99.11,105.44"/>
    </edge>
    <edge id=":J1_4" function="internal">
        <lane id=":J1_4_0" index="0" speed="3.65" length="1.44" shape="98.40,110.40 99.20,109.20"/>
    </edge>
    <edge id=":J1_20" function="internal">
        <lane id=":J1_20_0" index="0" speed="9.26" length="14.34" shape="99.11,105.44 99.15,105.15 101.40,101.40 105.15,99.15 110.40,98.40"/>
    </edge>
    <edge id=":J1_21" function="internal">
        <lane id=":J1_21_0" index="0" speed="3.65" length="3.23" shape="99.20,109.20 100.00,108.80 100.80,109.20 101.60,110.40"/>
    </edge>
    <edge id=":J1_5" function="internal">
        <lane id=":J1_5_0" index="0" speed="6.51" length="9.03" shape="110.40,104.80 107.95,105.15 106.20,106.20 105.15,107.95 104.80,110.40"/>
    </edge>
    <edge id=":J1_6" function="internal">
        <lane id=":J1_6_0" index="0" speed="13.89" length="20.80" shape="110.40,104.80 89.60,104.80"/>
        <lane id=":J1_6_1" index="1" speed="13.89" length="20.80" shape="110.40,101.60 89.60,101.60"/>
    </edge>
    <edge id=":J1_8" function="internal">
        <lane id=":J1_8_0" index="0" speed="9.26" length="5.01" shape="110.40,101.60 105.44,100.89"/>
    </edge>
    <edge id=":J1_9" function="internal">
        <lane id=":J1_9_0" index="0" speed="3.65" length="1.44" shape="110.40,101.60 109.20,100.80"/>
    </edge>
    <edge id=":J1_22" function="internal">
        <lane id=":J1_22_0" index="0" speed="9.26" length="14.34" shape="105.44,100.89 105.15,100.85 101.40,98.60 99.15,94.85 98.40,89.60"/>
    </edge>
    <edge id=":J1_23" function="internal">
        <lane id=":J1_23_0" index="0" speed="3.65" length="3.23" shape="109.20,100.80 108.80,100.00 109.20,99.20 110.40,98.40"/>
    </edge>
    <edge id=":J1_10" function="internal">
        <lane id=":J1_10_0" index="0" speed="6.51" length="9.03" shape="104.80,89.60 105.15,92.05 106.20,93.80 107.95,94.85 110.40,95.20"/>
    </edge>
    <edge id=":J1_11" function="internal">
        <lane id=":J1_11_0" index="0" speed="13.89" length="20.80" shape="104.80,89.60 104.80,110.40"/>
        <lane id=":J1_11_1" index="1" speed="13.89" length="20.80" shape="101.60,89.60 101.60,110.40"/>
    </edge>
    <edge id=":J1_13" function="internal">
        <lane id=":J1_13_0" index="0" speed="9.26" length="5.01" shape="101.60,89.60 100.89,94.56"/>
    </edge>
    <edge id=":J1_14" function="internal">
        <lane id=":J1_14_0" index="0" speed="3.65" length="1.44" shape="101.60,89.60 100.80,90.80"/>
    </edge>
    <edge id=":J1_24" function="internal">
        <lane id=":J1_24_0" index="0" speed="9.26" length="14.34" shape="100.89,94.56 100.85,94.85 98.60,98.60 94.85,100.85 89.60,101.60"/>
    </edge>
    <edge id=":J1_25" function="internal">
        <lane id=":J1_25_0" index="0" speed="3.65" length="3.23" shape="100.80,90.80 100.00,91.20 99.20,90.80 98.40,89.60"/>
    </edge>
    <edge id=":J1_15" function="internal">
        <lane id=":J1_15_0" index="0" speed="6.51" length="9.03" shape="89.60,95.20 92.05,94.85 93.80,93.80 94.85,92.05 95.20,89.60"/>
    </edge>
    <edge id=":J1_16" function="internal">
        <lane id=":J1_16_0" index="0" speed="13.89" length="20.80" shape="89.60,95.20 110.40,95.20"/>
        <lane id=":J1_16_1" index="1" speed="13.89" length="20.80" shape="89.60,98.40 110.40,98.40"/>
    </edge>
    <edge id=":J1_18" function="internal">
        <lane id=":J1_18_0" index="0" speed="9.26" length="5.01" shape="89.60,98.40 94.56,99.11"/>
    </edge>
    <edge id=":J1_19" function="internal">
        <lane id=":J1_19_0" index="0" speed="3.65" length="1.44" shape="89.60,98.40 90.80,99.20"/>
    </edge>
    <edge id=":J1_26" function="internal">
        <lane id=":J1_26_0" index="0" speed="9.26" length="14.34" shape="94.56,99.11 94.85,99.15 98.60,101.40 100.85,105.15 101.60,110.40"/>
    </edge>
    <edge id=":J1_27" function="internal">
        <lane id=":J1_27_0" index="0" speed="3.65" length="3.23" shape="90.80,99.20 91.20,100.00 90.80,100.80 89.60,101.60"/>
    </edge>
    <edge id=":J2_0" function="internal">
        <lane id=":J2_0_0" index="0" speed="6.51" length="9.03" shape="310.40,104.80 307.95,105.15 306.20,106.20 305.15,107.95 304.80,110.40"/>
    </edge>
    <edge id=":J2_1" function="internal">
        <lane id=":J2_1_0" index="0" speed="13.89" length="14.40" shape="310.40,104.80 296.00,104.80"/>
        <lane id=":J2_1_1" index="1" speed="13.89" length="14.40" shape="310.40,101.60 296.00,101.60"/>
    </edge>
    <edge id=":J2_3" function="internal">
        <lane id=":J2_3_0" index="0" speed="3.65" length="1.44" shape="310.40,101.60 309.20,100.80"/>
    </edge>
    <edge id=":J2_12" function="internal">
        <lane id=":J2_12_0" index="0" speed="3.65" length="3.23" shape="309.20,100.80 308.80,100.00 309.20,99.20 310.40,98.40"/>
    </edge>
    <edge id=":J2_4" function="internal">
        <lane id=":J2_4_0" index="0" speed="6.51" length="9.03" shape="304.80,89.60 305.15,92.05 306.20,93.80 307.95,94.85 310.40,95.20"/>
    </edge>
    <edge id=":J2_5" function="internal">
        <lane id=":J2_5_0" index="0" speed="13.89" length="20.80" shape="304.80,89.60 304.80,110.40"/>
        <lane id=":J2_5_1" index="1" speed="13.89" length="20.80" shape="301.60,89.60 301.60,110.40"/>
    </edge>
    <edge id=":J2_7" function="internal">
        <lane id=":J2_7_0" index="0" speed="8.10" length="14.57" shape="301.60,89.60 301.25,94.85 300.20,98.60 298.45,100.85 296.00,101.60"/>
    </edge>
    <edge id=":J2_8" function="internal">
        <lane id=":J2_8_0" index="0" speed="13.89" length="14.40" shape="296.00,95.20 310.40,95.20"/>
        <lane id=":J2_8_1" index="1" speed="13.89" length="14.40" shape="296.00,98.40 310.40,98.40"/>
    </edge>
    <edge id=":J2_10" function="internal">
        <lane id=":J2_10_0" index="0" speed="8.10" length="2.37" shape="296.00,98.40 298.27,99.09"/>
    </edge>
    <edge id=":J2_11" function="internal">
        <lane id=":J2_11_0" index="0" speed="3.65" length="1.44" shape="296.00,98.40 297.20,99.20"/>
    </edge>
    <edge id=":J2_13" function="internal">
        <lane id=":J2_13_0" index="0" speed="8.10" length="12.20" shape="298.27,99.09 298.45,99.15 300.20,101.40 301.25,105.15 301.60,110.40"/>
    </edge>
    <edge id=":J2_14" function="internal">
        <lane id=":J2_14_0" index="0" speed="3.65" length="3.23" shape="297.20,99.20 297.60,100.00 297.20,100.80 296.00,101.60"/>
    </edge>
    <edge id=":J3_0" function="internal">
        <lane id=":J3_0_0" index="0" speed="6.51" length="9.03" shape="510.40,104.80 507.95,105.15 506.20,106.20 505.15,107.95 504.80,110.40"/>
    </edge>
    <edge id=":J3_1" function="internal">
        <lane id=":J3_1_0" index="0" speed="13.89" length="14.40" shape="510.40,104.80 496.00,104.80"/>
        <lane id=":J3_1_1" index="1" speed="13.89" length="14.40" shape="510.40,101.60 496.00,101.60"/>
    </edge>
    <edge id=":J3_3" function="internal">
        <lane id=":J3_3_0" index="0" speed="3.65" length="1.44" shape="510.40,101.60 509.20,100.80"/>
    </edge>
    <edge id=":J3_12" function="internal">
        <lane id=":J3_12_0" index="0" speed="3.65" length="3.23" shape="509.20,100.80 508.80,100.00 509.20,99.20 510.40,98.40"/>
    </edge>
    <edge id=":J3_4" function="internal">
        <lane id=":J3_4_0" index="0" speed="6.51" length="9.03" shape="504.80,89.60 505.15,92.05 506.20,93.80 507.95,94.85 510.40,95.20"/>
    </edge>
    <edge id=":J3_5" function="internal">
        <lane id=":J3_5_0" index="0" speed="13.89" length="20.80" shape="504.80,89.60 504.80,110.40"/>
        <lane id=":J3_5_1" index="1" speed="13.89" length="20.80" shape="501.60,89.60 501.60,110.40"/>
    </edge>
    <edge id=":J3_7" function="internal">
        <lane id=":J3_7_0" index="0" speed="8.10" length="14.57" shape="501.60,89.60 501.25,94.85 500.20,98.60 498.45,100.85 496.00,101.60"/>
    </edge>
    <edge id=":J3_8" function="internal">
        <lane id=":J3_8_0" index="0" speed="13.89" length="14.40" shape="496.00,95.20 510.40,95.20"/>
        <lane id=":J3_8_1" index="1" speed="13.89" length="14.40" shape="496.00,98.40 510.40,98.40"/>
    </edge>
    <edge id=":J3_10" function="internal">
        <lane id=":J3_10_0" index="0" speed="8.10" length="2.37" shape="496.00,98.40 498.27,99.09"/>
    </edge>
    <edge id=":J3_11" function="internal">
        <lane id=":J3_11_0" index="0" speed="3.65" length="1.44" shape="496.00,98.40 497.20,99.20"/>
    </edge>
    <edge id=":J3_13" function="internal">
        <lane id=":J3_13_0" index="0" speed="8.10" length="12.20" shape="498.27,99.09 498.45,99.15 500.20,101.40 501.25,105.15 501.60,110.40"/>
    </edge>
    <edge id=":J3_14" function="internal">
        <lane id=":J3_14_0" index="0" speed="3.65" length="3.23" shape="497.20,99.20 497.60,100.00 497.20,100.80 496.00,101.60"/>
    </edge>
    <edge id=":J4_0" function="internal">
        <lane id=":J4_0_0" index="0" speed="13.89" length="14.40" shape="95.20,304.00 95.20,289.60"/>
        <lane id=":J4_0_1" index="1" speed="13.89" length="14.40" shape="98.40,304.00 98.40,289.60"/>
    </edge>
    <edge id=":J4_2" function="internal">
        <lane id=":J4_2_0" index="0" speed="8.10" length="2.37" shape="98.40,304.00 99.09,301.73"/>
    </edge>
    <edge id=":J4_3" function="internal">
        <lane id=":J4_3_0" index="0" speed="3.65" length="1.44" shape="98.40,304.00 99.20,302.80"/>
    </edge>
    <edge id=":J4_12" function="internal">
        <lane id=":J4_12_0" index="0" speed="8.10" length="12.20" shape="99.09,301.73 99.15,301.55 101.40,299.80 105.15,298.75 110.40,298.40"/>
    </edge>
    <edge id=":J4_13" function="internal">
        <lane id=":J4_13_0" index="0" speed="3.65" length="3.23" shape="99.20,302.80 100.00,302.40 100.80,302.80 101.60,304.00"/>
    </edge>
    <edge id=":J4_4" function="internal">
        <lane id=":J4_4_0" index="0" speed="6.51" length="9.03" shape="104.80,289.60 105.15,292.05 106.20,293.80 107.95,294.85 110.40,295.20"/>
    </edge>
    <edge id=":J4_5" function="internal">
        <lane id=":J4_5_0" index="0" speed="13.89" length="14.40" shape="104.80,289.60 104.80,304.00"/>
        <lane id=":J4_5_1" index="1" speed="13.89" length="14.40" shape="101.60,289.60 101.60,304.00"/>
    </edge>
    <edge id=":J4_7" function="internal">
        <lane id=":J4_7_0" index="0" speed="3.65" length="1.44" shape="101.60,289.60 100.80,290.80"/>
    </edge>
    <edge id=":J4_14" function="internal">
        <lane id=":J4_14_0" index="0" speed="3.65" length="3.23" shape="100.80,290.80 100.00,291.20 99.20,290.80 98.40,289.60"/>
    </edge>
    <edge id=":J4_8" function="internal">
        <lane id=":J4_8_0" index="0" speed="6.51" length="9.03" shape="89.60,295.20 92.05,294.85 93.80,293.80 94.85,292.05 95.20,289.60"/>
    </edge>
    <edge id=":J4_9" function="internal">
        <lane id=":J4_9_0" index="0" speed="13.89" length="20.80" shape="89.60,295.20 110.40,295.20"/>
        <lane id=":J4_9_1" index="1" speed="13.89" length="20.80" shape="89.60,298.40 110.40,298.40"/>
    </edge>
    <edge id=":J4_11" function="internal">
        <lane id=":J4_11_0" index="0" speed="8.10" length="14.57" shape="89.60,298.40 94.85,298.75 98.60,299.80 100.85,301.55 101.60,304.00"/>
    </edge>
    <edge id=":J5_0" function="internal">
        <lane id=":J5_0_0" index="0" speed="6.51" length="9.03" shape="304.80,289.60 305.15,292.05 306.20,293.80 307.95,294.85 310.40,295.20"/>
    </edge>
    <edge id=":J5_1" function="internal">
        <lane id=":J5_1_0" index="0" speed="13.89" length="14.40" shape="304.80,289.60 304.80,304.00"/>
        <lane id=":J5_1_1" index="1" speed="13.89" length="14.40" shape="301.60,289.60 301.60,304.00"/>
    </edge>
    <edge id=":J5_3" function="internal">
        <lane id=":J5_3_0" index="0" speed="13.89" length="14.40" shape="296.00,295.20 310.40,295.20"/>
        <lane id=":J5_3_1" index="1" speed="13.89" length="14.40" shape="296.00,298.40 310.40,298.40"/>
    </edge>
    <edge id=":J5_5" function="internal">
        <lane id=":J5_5_0" index="0" speed="6.51" length="9.03" shape="296.00,298.40 298.45,298.75 300.20,299.80 301.25,301.55 301.60,304.00"/>
    </edge>
    <edge id=":J6_0" function="internal">
        <lane id=":J6_0_0" index="0" speed="6.51" length="9.03" shape="504.80,289.60 505.15,292.05 506.20,293.80 507.95,294.85 510.40,295.20"/>
    </edge>
    <edge id=":J6_1" function="internal">
        <lane id=":J6_1_0" index="0" speed="13.89" length="14.40" shape="504.80,289.60 504.80,304.00"/>
        <lane id=":J6_1_1" index="1" speed="13.89" length="14.40" shape="501.60,289.60 501.60,304.00"/>
    </edge>
    <edge id=":J6_3" function="internal">
        <lane id=":J6_3_0" index="0" speed="13.89" length="14.40" shape="496.00,295.20 510.40,295.20"/>
        <lane id=":J6_3_1" index="1" speed="13.89" length="14.40" shape="496.00,298.40 510.40,298.40"/>
    </edge>
    <edge id=":J6_5" function="internal">
        <lane id=":J6_5_0" index="0" speed="6.51" length="9.03" shape="496.00,298.40 498.45,298.75 500.20,299.80 501.25,301.55 501.60,304.00"/>
    </edge>
    <edge id=":J7_0" function="internal">
        <lane id=":J7_0_0" index="0" speed="13.89" length="14.40" shape="95.20,504.00 95.20,489.60"/>
        <lane id=":J7_0_1" index="1" speed="13.89" length="14.40" shape="98.40,504.00 98.40,489.60"/>
    </edge>
    <edge id=":J7_2" function="internal">
        <lane id=":J7_2_0" index="0" speed="8.10" length="2.37" shape="98.40,504.00 99.09,501.73"/>
    </edge>
    <edge id=":J7_3" function="internal">
        <lane id=":J7_3_0" index="0" speed="3.65" length="1.44" shape="98.40,504.00 99.20,502.80"/>
    </edge>
    <edge id=":J7_12" function="internal">
        <lane id=":J7_12_0" index="0" speed="8.10" length="12.20" shape="99.09,501.73 99.15,501.55 101.40,499.80 105.15,498.75 110.40,498.40"/>
    </edge>
    <edge id=":J7_13" function="internal">
        <lane id=":J7_13_0" index="0" speed="3.65" length="3.23" shape="99.20,502.80 100.00,502.40 100.80,502.80 101.60,504.00"/>
    </edge>
    <edge id=":J7_4" function="internal">
        <lane id=":J7_4_0" index="0" speed="6.51" length="9.03" shape="104.80,489.60 105.15,492.05 106.20,493.80 107.95,494.85 110.40,495.20"/>
    </edge>
    <edge id=":J7_5" function="internal">
        <lane id=":J7_5_0" index="0" speed="13.89" length="14.40" shape="104.80,489.60 104.80,504.00"/>
        <lane id=":J7_5_1" index="1" speed="13.89" length="14.40" shape="101.60,489.60 101.60,504.00"/>
    </edge>
    <edge id=":J7_7" function="internal">
        <lane id=":J7_7_0" index="0" speed="3.65" length="1.44" shape="101.60,489.60 100.80,490.80"/>
    </edge>
    <edge id=":J7_14" function="internal">
        <lane id=":J7_14_0" index="0" speed="3.65" length="3.23" shape="100.80,490.80 100.00,491.20 99.20,490.80 98.40,489.60"/>
    </edge>
    <edge id=":J7_8" function="internal">
        <lane id=":J7_8_0" index="0" speed="6.51" length="9.03" shape="89.60,495.20 92.05,494.85 93.80,493.80 94.85,492.05 95.20,489.60"/>
    </edge>
    <edge id=":J7_9" function="internal">
        <lane id=":J7_9_0" index="0" speed="13.89" length="20.80" shape="89.60,495.20 110.40,495.20"/>
        <lane id=":J7_9_1" index="1" speed="13.89" length="20.80" shape="89.60,498.40 110.40,498.40"/>
    </edge>
    <edge id=":J7_11" function="internal">
        <lane id=":J7_11_0" index="0" speed="8.10" length="14.57" shape="89.60,498.40 94.85,498.75 98.60,499.80 100.85,501.55 101.60,504.00"/>
    </edge>
    <edge id=":J8_0" function="internal">
        <lane id=":J8_0_0" index="0" speed="6.51" length="9.03" shape="304.80,489.60 305.15,492.05 306.20,493.80 307.95,494.85 310.40,495.20"/>
    </edge>
    <edge id=":J8_1" function="internal">
        <lane id=":J8_1_0" index="0" speed="13.89" length="14.40" shape="304.80,489.60 304.80,504.00"/>
        <lane id=":J8_1_1" index="1" speed="13.89" length="14.40" shape="301.60,489.60 301.60,504.00"/>
    </edge>
    <edge id=":J8_3" function="internal">
        <lane id=":J8_3_0" index="0" speed="13.89" length="14.40" shape="296.00,495.20 310.40,495.20"/>
        <lane id=":J8_3_1" index="1" speed="13.89" length="14.40" shape="296.00,498.40 310.40,498.40"/>
    </edge>
    <edge id=":J8_5" function="internal">
        <lane id=":J8_5_0" index="0" speed="6.51" length="9.03" shape="296.00,498.40 298.45,498.75 300.20,499.80 301.25,501.55 301.60,504.00"/>
    </edge>
    <edge id=":J9_0" function="internal">
        <lane id=":J9_0_0" index="0" speed="6.51" length="9.03" shape="504.80,489.60 505.15,492.05 506.20,493.80 507.95,494.85 510.40,495.20"/>
    </edge>
    <edge id=":J9_1" function="internal">
        <lane id=":J9_1_0" index="0" speed="13.89" length="14.40" shape="504.80,489.60 504.80,504.00"/>
        <lane id=":J9_1_1" index="1" speed="13.89" length="14.40" shape="501.60,489.60 501.60,504.00"/>
    </edge>
    <edge id=":J9_3" function="internal">
        <lane id=":J9_3_0" index="0" speed="13.89" length="14.40" shape="496.00,495.20 510.40,495.20"/>
        <lane id=":J9_3_1" index="1" speed="13.89" length="14.40" shape="496.00,498.40 510.40,498.40"/>
    </edge>
    <edge id=":J9_5" function="internal">
        <lane id=":J9_5_0" index="0" speed="6.51" length="9.03" shape="496.00,498.40 498.45,498.75 500.20,499.80 501.25,501.55 501.60,504.00"/>
    </edge>
    <edge id=":N1_0" function="internal">
        <lane id=":N1_0_0" index="0" speed="3.65" length="4.67" shape="101.60,600.00 100.80,601.20 100.00,601.60 99.20,601.20 98.40,600.00"/>
    </edge>
    <edge id=":S1_0" function="internal">
        <lane id=":S1_0_0" index="0" speed="3.65" length="4.67" shape="98.40,0.00 99.20,-1.20 100.00,-1.60 100.80,-1.20 101.60,0.00"/>
    </edge>
    <edge id=":W1_0" function="internal">
        <lane id=":W1_0_0" index="0" speed="3.65" length="4.67" shape="0.00,101.60 -1.20,100.80 -1.60,100.00 -1.20,99.20 0.00,98.40"/>
    </edge>

    <edge id="E1-J3" from="E1" to="J3" priority="-1">
        <lane id="E1-J3_0" index="0" speed="13.89" length="89.60" shape="600.00,104.80 510.40,104.80"/>
        <lane id="E1-J3_1" index="1" speed="13.89" length="89.60" shape="600.00,101.60 510.40,101.60"/>
    </edge>
    <edge id="J1-J2" from="J1" to="J2" priority="-1">
        <lane id="J1-J2_0" index="0" speed="13.89" length="185.60" shape="110.40,95.20 296.00,95.20"/>
        <lane id="J1-J2_1" index="1" speed="13.89" length="185.60" shape="110.40,98.40 296.00,98.40"/>
    </edge>
    <edge id="J1-J4" from="J1" to="J4" priority="-1">
        <lane id="J1-J4_0" index="0" speed="13.89" length="179.20" shape="104.80,110.40 104.80,289.60"/>
        <lane id="J1-J4_1" index="1" speed="13.89" length="179.20" shape="101.60,110.40 101.60,289.60"/>
    </edge>
    <edge id="J1-S1" from="J1" to="S1" priority="-1">
        <lane id="J1-S1_0" index="0" speed="13.89" length="89.60" shape="95.20,89.60 95.20,0.00"/>
        <lane id="J1-S1_1" index="1" speed="13.89" length="89.60" shape="98.40,89.60 98.40,0.00"/>
    </edge>
    <edge id="J1-W1" from="J1" to="W1" priority="-1">
        <lane id="J1-W1_0" index="0" speed="13.89" length="89.60" shape="89.60,104.80 0.00,104.80"/>
        <lane id="J1-W1_1" index="1" speed="13.89" length="89.60" shape="89.60,101.60 0.00,101.60"/>
    </edge>
    <edge id="J2-J1" from="J2" to="J1" priority="-1">
        <lane id="J2-J1_0" index="0" speed="13.89" length="185.60" shape="296.00,104.80 110.40,104.80"/>
        <lane id="J2-J1_1" index="1" speed="13.89" length="185.60" shape="296.00,101.60 110.40,101.60"/>
    </edge>
    <edge id="J2-J3" from="J2" to="J3" priority="-1">
        <lane id="J2-J3_0" index="0" speed="13.89" length="185.60" shape="310.40,95.20 496.00,95.20"/>
        <lane id="J2-J3_1" index="1" speed="13.89" length="185.60" shape="310.40,98.40 496.00,98.40"/>
    </edge>
    <edge id="J2-J5" from="J2" to="J5" priority="-1">
        <lane id="J2-J5_0" index="0" speed="13.89" length="179.20" shape="304.80,110.40 304.80,289.60"/>
        <lane id="J2-J5_1" index="1" speed="13.89" length="179.20" shape="301.60,110.40 301.60,289.60"/>
    </edge>
    <edge id="J3-E1" from="J3" to="E1" priority="-1">
        <lane id="J3-E1_0" index="0" speed="13.89" length="89.60" shape="510.40,95.20 600.00,95.20"/>
        <lane id="J3-E1_1" index="1" speed="13.89" length="89.60" shape="510.40,98.40 600.00,98.40"/>
    </edge>
    <edge id="J3-J2" from="J3" to="J2" priority="-1">
        <lane id="J3-J2_0" index="0" speed="13.89" length="185.60" shape="496.00,104.80 310.40,104.80"/>
        <lane id="J3-J2_1" index="1" speed="13.89" length="185.60" shape="496.00,101.60 310.40,101.60"/>
    </edge>
    <edge id="J3-J6" from="J3" to="J6" priority="-1">
        <lane id="J3-J6_0" index="0" speed="13.89" length="179.20" shape="504.80,110.40 504.80,289.60"/>
        <lane id="J3-J6_1" index="1" speed="13.89" length="179.20" shape="501.60,110.40 501.60,289.60"/>
    </edge>
    <edge id="J4-J1" from="J4" to="J1" priority="-1">
        <lane id="J4-J1_0" index="0" speed="13.89" length="179.20" shape="95.20,289.60 95.20,110.40"/>
        <lane id="J4-J1_1" index="1" speed="13.89" length="179.20" shape="98.40,289.60 98.40,110.40"/>
    </edge>
    <edge id="J4-J5" from="J4" to="J5" priority="-1">
        <lane id="J4-J5_0" index="0" speed="13.89" length="185.60" shape="110.40,295.20 296.00,295.20"/>
        <lane id="J4-J5_1" index="1" speed="13.89" length="185.60" shape="110.40,298.40 296.00,298.40"/>
    </edge>
    <edge id="J4-J7" from="J4" to="J7" priority="-1">
        <lane id="J4-J7_0" index="0" speed="13.89" length="185.60" shape="104.80,304.00 104.80,489.60"/>
        <lane id="J4-J7_1" index="1" speed="13.89" length="185.60" shape="101.60,304.00 101.60,489.60"/>
    </edge>
    <edge id="J5-J6" from="J5" to="J6" priority="-1">
        <lane id="J5-J6_0" index="0" speed="13.89" length="185.60" shape="310.40,295.20 496.00,295.20"/>
        <lane id="J5-J6_1" index="1" speed="13.89" length="185.60" shape="310.40,298.40 496.00,298.40"/>
    </edge>
    <edge id="J5-J8" from="J5" to="J8" priority="-1">
        <lane id="J5-J8_0" index="0" speed="13.89" length="185.60" shape="304.80,304.00 304.80,489.60"/>
        <lane id="J5-J8_1" index="1" speed="13.89" length="185.60" shape="301.60,304.00 301.60,489.60"/>
    </edge>
    <edge id="J6-E2" from="J6" to="E2" priority="-1">
        <lane id="J6-E2_0" index="0" speed="13.89" length="89.60" shape="510.40,295.20 600.00,295.20"/>
        <lane id="J6-E2_1" index="1" speed="13.89" length="89.60" shape="510.40,298.40 600.00,298.40"/>
    </edge>
    <edge id="J6-J9" from="J6" to="J9" priority="-1">
        <lane id="J6-J9_0" index="0" speed="13.89" length="185.60" shape="504.80,304.00 504.80,489.60"/>
        <lane id="J6-J9_1" index="1" speed="13.89" length="185.60" shape="501.60,304.00 501.60,489.60"/>
    </edge>
    <edge id="J7-J4" from="J7" to="J4" priority="-1">
        <lane id="J7-J4_0" index="0" speed="13.89" length="185.60" shape="95.20,489.60 95.20,304.00"/>
        <lane id="J7-J4_1" index="1" speed="13.89" length="185.60" shape="98.40,489.60 98.40,304.00"/>
    </edge>
    <edge id="J7-J8" from="J7" to="J8" priority="-1">
        <lane id="J7-J8_0" index="0" speed="13.89" length="185.60" shape="110.40,495.20 296.00,495.20"/>
        <lane id="J7-J8_1" index="1" speed="13.89" length="185.60" shape="110.40,498.40 296.00,498.40"/>
    </edge>
    <edge id="J7-N1" from="J7" to="N1" priority="-1">
        <lane id="J7-N1_0" index="0" speed="13.89" length="96.00" shape="104.80,504.00 104.80,600.00"/>
        <lane id="J7-N1_1" index="1" speed="13.89" length="96.00" shape="101.60,504.00 101.60,600.00"/>
    </edge>
    <edge id="J8-J9" from="J8" to="J9" priority="-1">
        <lane id="J8-J9_0" index="0" speed="13.89" length="185.60" shape="310.40,495.20 496.00,495.20"/>
        <lane id="J8-J9_1" index="1" speed="13.89" length="185.60" shape="310.40,498.40 496.00,498.40"/>
    </edge>
    <edge id="J8-N2" from="J8" to="N2" priority="-1">
        <lane id="J8-N2_0" index="0" speed="13.89" length="96.00" shape="304.80,504.00 304.80,600.00"/>
        <lane id="J8-N2_1" index="1" speed="13.89" length="96.00" shape="301.60,504.00 301.60,600.00"/>
    </edge>
    <edge id="J9-E3" from="J9" to="E3" priority="-1">
        <lane id="J9-E3_0" index="0" speed="13.89" length="89.60" shape="510.40,495.20 600.00,495.20"/>
        <lane id="J9-E3_1" index="1" speed="13.89" length="89.60" shape="510.40,498.40 600.00,498.40"/>
    </edge>
    <edge id="J9-N3" from="J9" to="N3" priority="-1">
        <lane id="J9-N3_0" index="0" speed="13.89" length="96.00" shape="504.80,504.00 504.80,600.00"/>
        <lane id="J9-N3_1" index="1" speed="13.89" length="96.00" shape="501.60,504.00 501.60,600.00"/>
    </edge>
    <edge id="N1-J7" from="N1" to="J7" priority="-1">
        <lane id="N1-J7_0" index="0" speed="13.89" length="96.00" shape="95.20,600.00 95.20,504.00"/>
        <lane id="N1-J7_1" index="1" speed="13.89" length="96.00" shape="98.40,600.00 98.40,504.00"/>
    </edge>
    <edge id="S1-J1" from="S1" to="J1" priority="-1">
        <lane id="S1-J1_0" index="0" speed="13.89" length="89.60" shape="104.80,0.00 104.80,89.60"/>
        <lane id="S1-J1_1" index="1" speed="13.89" length="89.60" shape="101.60,0.00 101.60,89.60"/>
    </edge>
    <edge id="S2-J2" from="S2" to="J2" priority="-1">
        <lane id="S2-J2_0" index="0" speed="13.89" length="89.60" shape="304.80,0.00 304.80,89.60"/>
        <lane id="S2-J2_1" index="1" speed="13.89" length="89.60" shape="301.60,0.00 301.60,89.60"/>
    </edge>
    <edge id="S3-J3" from="S3" to="J3" priority="-1">
        <lane id="S3-J3_0" index="0" speed="13.89" length="89.60" shape="504.80,0.00 504.80,89.60"/>
        <lane id="S3-J3_1" index="1" speed="13.89" length="89.60" shape="501.60,0.00 501.60,89.60"/>
    </edge>
    <edge id="W1-J1" from="W1" to="J1" priority="-1">
        <lane id="W1-J1_0" index="0" speed="13.89" length="89.60" shape="0.00,95.20 89.60,95.20"/>
        <lane id="W1-J1_1" index="1" speed="13.89" length="89.60" shape="0.00,98.40 89.60,98.40"/>
    </edge>
    <edge id="W2-J4" from="W2" to="J4" priority="-1">
        <lane id="W2-J4_0" index="0" speed="13.89" length="89.60" shape="0.00,295.20 89.60,295.20"/>
        <lane id="W2-J4_1" index="1" speed="13.89" length="89.60" shape="0.00,298.40 89.60,298.40"/>
    </edge>
    <edge id="W3-J7" from="W3" to="J7" priority="-1">
        <lane id="W3-J7_0" index="0" speed="13.89" length="89.60" shape="0.00,495.20 89.60,495.20"/>
        <lane id="W3-J7_1" index="1" speed="13.89" length="89.60" shape="0.00,498.40 89.60,498.40"/>
    </edge>

    <tlLogic id="J1" type="static" programID="0" offset="0">
        <phase duration="42" state="GGGggrrrrrGGGggrrrrr"/>
        <phase duration="3"  state="yyyyyrrrrryyyyyrrrrr"/>
        <phase duration="42" state="rrrrrGGGggrrrrrGGGgg"/>
        <phase duration="3"  state="rrrrryyyyyrrrrryyyyy"/>
    </tlLogic>
    <tlLogic id="J2" type="static" programID="0" offset="0">
        <phase duration="42" state="GGGgrrrrGGgg"/>
        <phase duration="3"  state="yyyyrrrryyyy"/>
        <phase duration="42" state="rrrrGGGGrrrr"/>
        <phase duration="3"  state="rrrryyyyrrrr"/>
    </tlLogic>
    <tlLogic id="J3" type="static" programID="0" offset="0">
        <phase duration="42" state="GGGgrrrrGGgg"/>
        <phase duration="3"  state="yyyyrrrryyyy"/>
        <phase duration="42" state="rrrrGGGGrrrr"/>
        <phase duration="3"  state="rrrryyyyrrrr"/>
    </tlLogic>
    <tlLogic id="J4" type="static" programID="0" offset="0">
        <phase duration="42" state="GGggGGGgrrrr"/>
        <phase duration="3"  state="yyyyyyyyrrrr"/>
        <phase duration="42" state="rrrrrrrrGGGG"/>
        <phase duration="3"  state="rrrrrrrryyyy"/>
    </tlLogic>
    <tlLogic id="J5" type="static" programID="0" offset="0">
        <phase duration="42" state="GGGrrr"/>
        <phase duration="3"  state="yyyrrr"/>
        <phase duration="42" state="rrrGGG"/>
        <phase duration="3"  state="rrryyy"/>
    </tlLogic>
    <tlLogic id="J6" type="static" programID="0" offset="0">
        <phase duration="42" state="GGGrrr"/>
        <phase duration="3"  state="yyyrrr"/>