<?xml version="1.0" encoding="UTF-8"?>
<routes>
    <!-- Vehicle Types -->
    <vType id="car" accel="2.6" decel="4.5" sigma="0.5" length="4.5" maxSpeed="16.67" color="1,1,0"/>
    <vType id="truck" accel="1.3" decel="4.0" sigma="0.5" length="8.0" maxSpeed="11.11" color="0.5,0.5,0.5"/>
    <vType id="ambulance" accel="3.5" decel="5.0" sigma="0.2" length="6.0" maxSpeed="25.0" color="1,0,0" guiShape="emergency"/>
    
    <!-- Routes -->
    <route id="route_h1" edges="W1-J1 J1-J2 J2-J3 J3-E1"/>
    <route id="route_h2" edges="W2-J4 J4-J5 J5-J6 J6-E2"/>
    <route id="route_h3" edges="W3-J7 J7-J8 J8-J9 J9-E3"/>
    <route id="route_v1" edges="S1-J1 J1-J4 J4-J7 J7-N1"/>
    <route id="route_v2" edges="S2-J2 J2-J5 J5-J8 J8-N2"/>
    <route id="route_v3" edges="S3-J3 J3-J6 J6-J9 J9-N3"/>
    
    <!-- Regular traffic flows -->
    <flow id="flow_h1" type="car" route="route_h1" begin="0" end="3600" vehsPerHour="300"/>
    <flow id="flow_h2" type="car" route="route_h2" begin="0" end="3600" vehsPerHour="250"/>
    <flow id="flow_h3" type="car" route="route_h3" begin="0" end="3600" vehsPerHour="200"/>
    <flow id="flow_v1" type="car" route="route_v1" begin="0" end="3600" vehsPerHour="200"/>
    <flow id="flow_v2" type="car" route="route_v2" begin="0" end="3600" vehsPerHour="280"/>
    <flow id="flow_v3" type="car" route="route_v3" begin="0" end="3600" vehsPerHour="180"/>
    
    <!-- Trucks -->
    <flow id="trucks_h1" type="truck" route="route_h1" begin="0" end="3600" vehsPerHour="50"/>
    <flow id="trucks_v2" type="truck" route="route_v2" begin="0" end="3600" vehsPerHour="40"/>
    
    <!-- Emergency vehicles (ambulances) -->
    <vehicle id="AMB001" type="ambulance" route="route_h2" depart="300"/>
    <vehicle id="AMB002" type="ambulance" route="route_v2" depart="600"/>
    <vehicle id="AMB003" type="ambulance" route="route_h1" depart="1200"/>
    <vehicle id="AMB004" type="ambulance" route="route_v1" depart="1800"/>
    
    <!-- Congestion period (rush hour 500-1000) -->
    <flow id="rush_h1" type="car" route="route_h1" begin="500" end="1000" vehsPerHour="600"/>
    <flow id="rush_h2" type="car" route="route_h2" begin="500" end="1000" vehsPerHour="550"/>
    <flow id="rush_v2" type="car" route="route_v2" begin="500" end="1000" vehsPerHour="500"/>
</routes>
