<?xml version="1.0" encoding="UTF-8"?>
<additional>
    <!-- Regular Cars -->
    <vType id="car" accel="2.6" decel="4.5" sigma="0.5" length="4.5" maxSpeed="50" 
           color="1,1,0" guiShape="passenger" imgFile=""/>
    <vType id="car_blue" accel="2.6" decel="4.5" sigma="0.5" length="4.5" maxSpeed="50" 
           color="0,0,1" guiShape="passenger"/>
    <vType id="car_red" accel="2.6" decel="4.5" sigma="0.5" length="4.5" maxSpeed="50" 
           color="1,0,0" guiShape="passenger"/>
    <vType id="car_green" accel="2.6" decel="4.5" sigma="0.5" length="4.5" maxSpeed="50" 
           color="0,1,0" guiShape="passenger"/>
    
    <!-- SUVs -->
    <vType id="suv" accel="2.4" decel="4.0" sigma="0.5" length="5.0" width="2.1" maxSpeed="45" 
           color="0.3,0.3,0.3" guiShape="passenger/sedan"/>
    
    <!-- Trucks -->
    <vType id="truck" accel="1.3" decel="4.0" sigma="0.5" length="12.0" width="2.5" maxSpeed="30" 
           color="0.5,0.5,0.5" guiShape="truck"/>
    <vType id="truck_semi" accel="1.0" decel="3.5" sigma="0.5" length="16.0" width="2.5" maxSpeed="25" 
           color="0.4,0.2,0.1" guiShape="truck/semitrailer"/>
    
    <!-- Buses -->
    <vType id="bus" accel="1.2" decel="4.0" sigma="0.5" length="12.0" width="2.55" maxSpeed="25" 
           color="0.1,0.5,0.1" guiShape="bus"/>
    <vType id="bus_city" accel="1.5" decel="4.0" sigma="0.5" length="18.0" width="2.55" maxSpeed="20" 
           color="1,0.5,0" guiShape="bus/flexible"/>
    
    <!-- Motorcycles -->
    <vType id="motorcycle" accel="4.0" decel="6.0" sigma="0.3" length="2.2" width="0.8" maxSpeed="60" 
           color="0.9,0.1,0.1" guiShape="motorcycle"/>
    <vType id="scooter" accel="2.5" decel="5.0" sigma="0.4" length="1.8" width="0.7" maxSpeed="40" 
           color="0.2,0.6,0.8" guiShape="moped"/>
    
    <!-- Bicycles -->
    <vType id="bicycle" accel="1.2" decel="3.0" sigma="0.5" length="1.8" width="0.6" maxSpeed="8" 
           color="0,0.7,0.7" guiShape="bicycle"/>
    
    <!-- Emergency Vehicles -->
    <vType id="ambulance" accel="3.5" decel="5.0" sigma="0.2" length="6.5" width="2.2" maxSpeed="70" 
           color="1,1,1" guiShape="emergency" 
           emergencyDecel="9.0" speedDev="0.1"/>
    <vType id="fire_truck" accel="2.0" decel="4.5" sigma="0.2" length="10.0" width="2.5" maxSpeed="60" 
           color="1,0,0" guiShape="firebrigade"/>
    <vType id="police" accel="4.0" decel="6.0" sigma="0.1" length="5.0" width="2.0" maxSpeed="80" 
           color="0,0,0.8" guiShape="emergency"/>
    
    <!-- Auto-rickshaws (common in India) -->
    <vType id="auto" accel="2.0" decel="4.0" sigma="0.6" length="2.7" width="1.4" maxSpeed="25" 
           color="0,0.8,0" guiShape="passenger/hatchback"/>
    
    <!-- Pedestrians -->
    <vType id="pedestrian" vClass="pedestrian" guiShape="pedestrian" width="0.5" length="0.3" 
           minGap="0.25" maxSpeed="1.5" color="0.9,0.7,0.5"/>
</additional>
